Version 4
SHEET 1 1140 1084
WIRE -336 -176 -336 -208
WIRE -48 -128 -112 -128
WIRE 96 -128 32 -128
WIRE 496 -128 96 -128
WIRE 720 -128 576 -128
WIRE 944 -112 928 -112
WIRE 960 -112 944 -112
WIRE 1056 -112 1040 -112
WIRE 1072 -112 1056 -112
WIRE -480 -64 -544 -64
WIRE -336 -64 -336 -112
WIRE -336 -64 -400 -64
WIRE 1056 -48 1056 -112
WIRE 1056 -48 960 -48
WIRE 320 -32 288 -32
WIRE 432 -32 400 -32
WIRE 1072 -32 1072 -112
WIRE 1072 -32 976 -32
WIRE -336 -16 -336 -64
WIRE 720 -16 720 -128
WIRE 752 -16 720 -16
WIRE 928 -16 928 -112
WIRE 928 -16 800 -16
WIRE 752 0 720 0
WIRE 848 0 800 0
WIRE 64 16 16 16
WIRE 720 16 720 0
WIRE 720 16 704 16
WIRE 752 16 736 16
WIRE 832 16 800 16
WIRE 848 16 848 0
WIRE 864 16 848 16
WIRE 384 32 336 32
WIRE 720 32 720 16
WIRE 752 32 720 32
WIRE 848 32 848 16
WIRE 848 32 800 32
WIRE 832 48 832 16
WIRE 976 48 976 -32
WIRE 976 48 832 48
WIRE -336 112 -336 48
WIRE -256 112 -336 112
WIRE -112 112 -112 -128
WIRE -112 112 -176 112
WIRE -16 112 -112 112
WIRE 96 128 96 -128
WIRE 96 128 48 128
WIRE 192 128 96 128
WIRE 288 128 288 -32
WIRE 288 128 272 128
WIRE 304 128 288 128
WIRE -16 144 -48 144
WIRE 432 144 432 -32
WIRE 432 144 368 144
WIRE 496 144 432 144
WIRE 736 144 736 16
WIRE 736 144 576 144
WIRE 944 144 944 -112
WIRE 944 144 896 144
WIRE 304 160 256 160
WIRE 880 160 848 160
WIRE 912 160 880 160
WIRE -48 176 -48 144
WIRE 848 176 848 160
WIRE 848 176 832 176
WIRE 896 176 896 144
WIRE 896 176 864 176
WIRE 960 192 960 -48
WIRE 960 192 896 192
WIRE 256 208 256 160
WIRE 864 208 864 176
WIRE 880 208 880 160
WIRE 896 208 896 192
WIRE 912 208 912 160
WIRE 864 272 864 256
WIRE 864 272 832 272
WIRE 896 272 896 256
WIRE 928 272 896 272
WIRE 880 288 880 256
WIRE 896 288 880 288
WIRE 912 288 912 256
WIRE 912 288 896 288
WIRE 832 304 832 272
WIRE 896 304 896 288
WIRE 928 304 928 272
WIRE 928 400 928 384
WIRE 928 400 688 400
WIRE 832 464 832 384
WIRE 832 464 688 464
WIRE 832 480 832 464
WIRE 928 480 928 400
WIRE 832 592 832 560
WIRE 880 592 832 592
WIRE 928 592 928 560
WIRE 928 592 880 592
WIRE 880 640 880 592
FLAG -48 176 0
FLAG 256 208 0
FLAG 16 240 0
FLAG 336 256 0
FLAG 384 32 0
FLAG 64 16 0
FLAG -336 -208 0
FLAG -624 -64 0
FLAG 880 720 0
FLAG 688 400 V_sense-
IOPIN 688 400 Out
FLAG 688 464 V_sense+
IOPIN 688 464 Out
FLAG 704 16 0
FLAG 864 16 0
FLAG 896 304 0
FLAG 832 176 0
SYMBOL Opamps\\OP284 16 64 R0
WINDOW 3 24 87 Left 2
SYMATTR InstName U1
SYMBOL Opamps\\OP284 336 80 R0
WINDOW 3 25 82 Left 2
SYMATTR InstName U2
SYMBOL res 288 112 R90
WINDOW 0 0 56 VBottom 2
WINDOW 3 30 82 VTop 2
SYMATTR InstName R3
SYMATTR Value 10000
SYMBOL res 48 -144 R90
WINDOW 0 0 56 VBottom 2
WINDOW 3 32 56 VTop 2
SYMATTR InstName R2
SYMATTR Value 100000
SYMBOL res 416 -48 R90
WINDOW 0 -7 63 VBottom 2
WINDOW 3 32 56 VTop 2
SYMATTR InstName R3
SYMATTR Value 10000
SYMBOL voltage 16 112 R180
WINDOW 0 368 -955 Left 2
WINDOW 3 -14 58 Left 2
WINDOW 123 0 0 Left 0
WINDOW 39 0 0 Left 0
SYMATTR InstName V1
SYMATTR Value 5V
SYMBOL voltage 336 128 R180
WINDOW 0 687 -937 Left 2
WINDOW 3 -12 59 Left 2
WINDOW 123 0 0 Left 0
WINDOW 39 0 0 Left 0
SYMATTR InstName V2
SYMATTR Value 5V
SYMBOL res 592 -144 R90
WINDOW 0 0 56 VBottom 2
WINDOW 3 32 56 VTop 2
SYMATTR InstName Rref
SYMATTR Value 100000
SYMBOL res 592 128 R90
WINDOW 0 0 56 VBottom 2
WINDOW 3 32 56 VTop 2
SYMATTR InstName Rref
SYMATTR Value 100000
SYMBOL voltage 16 144 R0
WINDOW 123 0 0 Left 0
WINDOW 39 0 0 Left 0
WINDOW 0 -377 916 Left 2
WINDOW 3 -19 57 Left 2
SYMATTR InstName V3
SYMATTR Value -5V
SYMBOL voltage 336 160 R0
WINDOW 123 0 0 Left 0
WINDOW 39 0 0 Left 0
WINDOW 0 -717 892 Left 2
WINDOW 3 -19 58 Left 2
SYMATTR InstName V4
SYMATTR Value -5V
SYMBOL res -160 96 R90
WINDOW 0 0 56 VBottom 2
WINDOW 3 32 56 VTop 2
SYMATTR InstName R2
SYMATTR Value 100000
SYMBOL res -496 -48 R270
WINDOW 0 32 56 VTop 2
WINDOW 3 0 56 VBottom 2
SYMATTR InstName R10
SYMATTR Value 100000
SYMBOL cap -352 -176 R0
SYMATTR InstName C1
SYMATTR Value 1µ
SYMBOL res 1056 -128 R90
WINDOW 0 0 56 VBottom 2
WINDOW 3 32 56 VTop 2
SYMATTR InstName GRT
SYMATTR Value 1000
SYMBOL voltage -528 -64 R90
WINDOW 0 -32 56 VBottom 2
WINDOW 3 1115 -150 VTop 2
SYMATTR InstName V_modulation
SYMBOL res 816 288 R0
SYMATTR InstName R1
SYMBOL res 816 464 R0
SYMATTR InstName R4
SYMBOL res 912 288 R0
SYMATTR InstName R5
SYMBOL res 912 464 R0
SYMATTR InstName R6
SYMBOL voltage 880 624 R0
WINDOW 0 -1255 426 Left 2
WINDOW 3 -11 56 Left 2
WINDOW 123 0 0 Left 0
WINDOW 39 0 0 Left 0
SYMATTR InstName V6
SYMATTR Value 5V
SYMBOL LTV824 800 -32 R90
SYMATTR InstName X1
SYMBOL LTV824 848 208 R0
SYMATTR InstName X2
SYMBOL cap -352 -16 R0
SYMATTR InstName C2
SYMATTR Value 1µ
TEXT -184 984 Left 2 !.tran 2
TEXT -264 -40 Left 2 ;These must be higher than R10
