Version 4
SHEET 1 2288 1652
WIRE -928 -208 -928 -272
WIRE -752 -80 -832 -80
WIRE -608 -64 -688 -64
WIRE -1168 -48 -1232 -48
WIRE -1072 -48 -1104 -48
WIRE -928 -48 -928 -128
WIRE -928 -48 -992 -48
WIRE -752 -48 -928 -48
WIRE -64 -32 -240 -32
WIRE -720 -16 -720 -32
WIRE -240 -16 -240 -32
WIRE -240 -16 -272 -16
WIRE -832 0 -832 -80
WIRE -768 0 -832 0
WIRE -336 0 -416 0
WIRE -272 0 -272 -16
WIRE -272 0 -336 0
WIRE -928 16 -928 -48
WIRE -832 16 -832 0
WIRE -768 32 -768 0
WIRE -608 32 -768 32
WIRE -928 112 -928 96
WIRE -832 112 -832 96
WIRE -2048 256 -2048 224
WIRE -624 320 -656 320
WIRE -512 320 -544 320
WIRE -144 320 -512 320
WIRE -32 320 -80 320
WIRE 112 320 48 320
WIRE 240 320 112 320
WIRE 112 352 112 320
WIRE -304 368 -336 368
WIRE -192 368 -224 368
WIRE -2048 400 -2048 336
WIRE -1968 400 -2048 400
WIRE -2272 432 -2272 416
WIRE -2128 432 -2272 432
WIRE -2048 432 -2048 400
WIRE -656 448 -656 320
WIRE -656 448 -720 448
WIRE -624 448 -656 448
WIRE -512 464 -512 320
WIRE -512 464 -560 464
WIRE -448 464 -512 464
WIRE -336 464 -336 368
WIRE -336 464 -368 464
WIRE -304 464 -336 464
WIRE -624 480 -656 480
WIRE -192 480 -192 368
WIRE -192 480 -240 480
WIRE -144 480 -192 480
WIRE -32 480 -80 480
WIRE 112 480 112 432
WIRE 112 480 48 480
WIRE 240 480 112 480
WIRE -304 496 -352 496
WIRE -656 512 -656 480
WIRE -352 544 -352 496
WIRE -848 864 -928 864
WIRE -704 880 -784 880
WIRE -848 896 -1024 896
WIRE -816 928 -816 912
WIRE -928 944 -928 864
WIRE -864 944 -928 944
WIRE -432 944 -512 944
WIRE -368 944 -432 944
WIRE -864 976 -864 944
WIRE -704 976 -864 976
WIRE -1024 1264 -1024 1200
WIRE -848 1392 -928 1392
WIRE -704 1408 -784 1408
WIRE -1168 1424 -1200 1424
WIRE -1024 1424 -1024 1344
WIRE -1024 1424 -1088 1424
WIRE -848 1424 -1024 1424
WIRE -816 1456 -816 1440
WIRE -928 1472 -928 1392
WIRE -864 1472 -928 1472
WIRE -432 1472 -512 1472
WIRE -368 1472 -368 1456
WIRE -368 1472 -432 1472
WIRE -1024 1488 -1024 1424
WIRE -928 1488 -928 1472
WIRE -864 1504 -864 1472
WIRE -704 1504 -864 1504
WIRE -1024 1584 -1024 1568
WIRE -928 1584 -928 1568
FLAG -656 512 0
FLAG -352 544 0
FLAG -2112 -48 0
FLAG -2016 -96 0
FLAG -1312 -48 0
FLAG -2272 592 0
FLAG -2272 352 0
FLAG -2048 144 0
FLAG -928 112 0
FLAG -832 112 0
FLAG -720 -16 0
FLAG 32 -304 V2
FLAG -416 -64 V2
FLAG 32 -384 0
FLAG -336 160 0
FLAG -592 432 V2
FLAG -272 448 V2
FLAG 176 -304 V3
FLAG 176 -384 0
FLAG -592 496 V3
FLAG -272 512 V3
FLAG 0 -32 Vmod
FLAG -800 448 Vmod
FLAG -928 -272 V2
FLAG -720 -96 V2
FLAG -816 928 0
FLAG -512 880 V2
FLAG -432 1104 0
FLAG -816 848 V2
FLAG 240 320 Vsense-
FLAG 240 480 Vsense+
FLAG -1024 1584 0
FLAG -928 1584 0
FLAG -816 1456 0
FLAG -512 1408 V2
FLAG -432 1632 0
FLAG -1024 1200 V2
FLAG -816 1376 V2
FLAG -1024 896 Vsense-
SYMBOL voltage -2112 -144 R0
WINDOW 123 0 0 Left 0
WINDOW 39 0 0 Left 0
SYMATTR InstName V1
SYMATTR Value SINE(0.5 0.5 100 0 0)
SYMBOL res -704 432 R90
WINDOW 0 0 56 VBottom 2
WINDOW 3 32 56 VTop 2
SYMATTR InstName R1
SYMATTR Value 470k
SYMBOL Opamps\\OP284 -592 400 R0
SYMATTR InstName U1
SYMBOL Opamps\\OP284 -272 416 R0
SYMATTR InstName U2
SYMBOL res -352 448 R90
WINDOW 0 0 56 VBottom 2
WINDOW 3 32 56 VTop 2
SYMATTR InstName R2
SYMATTR Value 10k
SYMBOL res -528 304 R90
WINDOW 0 0 56 VBottom 2
WINDOW 3 32 56 VTop 2
SYMATTR InstName R3
SYMATTR Value 10Meg
SYMBOL res -208 352 R90
WINDOW 0 7 104 VBottom 2
WINDOW 3 33 60 VTop 2
SYMATTR InstName R5
SYMATTR Value 10k
SYMBOL voltage -2016 -192 R0
WINDOW 123 0 0 Left 0
WINDOW 39 0 0 Left 0
SYMATTR InstName V6
SYMATTR Value 2
SYMBOL voltage -1216 -48 R90
WINDOW 123 0 0 Left 0
WINDOW 39 0 0 Left 0
SYMATTR InstName V7
SYMATTR Value SINE(1 1 1)
SYMBOL res -2032 416 R90
WINDOW 0 0 56 VBottom 2
WINDOW 3 32 56 VTop 2
SYMATTR InstName R9
SYMATTR Value 100000
SYMBOL voltage -2272 496 R0
WINDOW 123 0 0 Left 0
WINDOW 39 0 0 Left 0
SYMATTR InstName V8
SYMATTR Value SINE(1.5 1.5 10)
SYMBOL res -2288 416 R0
SYMATTR InstName R10
SYMATTR Value 100000
SYMBOL cap -2288 352 R0
SYMATTR InstName C3
SYMATTR Value 1µ
SYMBOL res -2064 240 R0
SYMATTR InstName R11
SYMATTR Value 100000
SYMBOL voltage -2048 240 R180
WINDOW 0 24 96 Left 2
WINDOW 3 24 16 Left 2
WINDOW 123 0 0 Left 0
WINDOW 39 0 0 Left 0
SYMATTR InstName V9
SYMATTR Value -0.4
SYMBOL cap -1104 -64 R90
WINDOW 0 0 32 VBottom 2
WINDOW 3 32 32 VTop 2
SYMATTR InstName C1
SYMATTR Value 0.3µ
SYMBOL res -976 -64 R90
WINDOW 0 0 56 VBottom 2
WINDOW 3 32 56 VTop 2
SYMATTR InstName R8
SYMATTR Value 10k
SYMBOL res -912 -112 R180
WINDOW 0 36 76 Left 2
WINDOW 3 36 40 Left 2
SYMATTR InstName R12
SYMATTR Value 47k
SYMBOL res -912 112 R180
WINDOW 0 36 76 Left 2
WINDOW 3 36 40 Left 2
SYMATTR InstName R13
SYMATTR Value 20k
SYMBOL res -816 112 R180
WINDOW 0 36 76 Left 2
WINDOW 3 36 40 Left 2
SYMATTR InstName R16
SYMATTR Value 1.5k
SYMBOL OpAmps\\LT1638 -720 -128 R0
SYMATTR InstName U3
SYMBOL Optos\\4N25A -512 0 R0
SYMATTR InstName U4
SYMBOL voltage 32 -288 R180
WINDOW 123 0 0 Left 0
WINDOW 39 0 0 Left 0
SYMATTR InstName V13
SYMATTR Value 5V
SYMBOL res -352 -16 R0
SYMATTR InstName R17
SYMATTR Value 2k
SYMBOL res -352 64 R0
SYMATTR InstName R18
SYMATTR Value 1.5K
SYMBOL cap 0 -48 R90
WINDOW 0 0 32 VBottom 2
WINDOW 3 32 32 VTop 2
SYMATTR InstName C2
SYMATTR Value 1µ
SYMBOL voltage 176 -288 R180
WINDOW 123 0 0 Left 0
WINDOW 39 0 0 Left 0
SYMATTR InstName V2
SYMATTR Value -5
SYMBOL cap -80 464 R90
WINDOW 0 0 32 VBottom 2
WINDOW 3 32 32 VTop 2
SYMATTR InstName C4
SYMATTR Value 1µ
SYMBOL cap -80 304 R90
WINDOW 0 0 32 VBottom 2
WINDOW 3 32 32 VTop 2
SYMATTR InstName C5
SYMATTR Value 1µ
SYMBOL res 64 304 R90
WINDOW 0 0 56 VBottom 2
WINDOW 3 32 56 VTop 2
SYMATTR InstName R4
SYMATTR Value 1Meg
SYMBOL res 64 464 R90
WINDOW 0 0 56 VBottom 2
WINDOW 3 32 56 VTop 2
SYMATTR InstName R6
SYMATTR Value 1Meg
SYMBOL res 96 336 R0
SYMATTR InstName GRT
SYMATTR Value 100k
SYMBOL OpAmps\\LT1638 -816 816 R0
SYMATTR InstName U5
SYMBOL Optos\\4N25A -608 944 R0
SYMATTR InstName U6
SYMBOL res -448 928 R0
SYMATTR InstName R20
SYMATTR Value 2k
SYMBOL res -448 1008 R0
SYMATTR InstName R21
SYMATTR Value 1.5K
SYMBOL cap -1200 1408 R90
WINDOW 0 0 32 VBottom 2
WINDOW 3 32 32 VTop 2
SYMATTR InstName C7
SYMATTR Value 0.3µ
SYMBOL res -1072 1408 R90
WINDOW 0 0 56 VBottom 2
WINDOW 3 32 56 VTop 2
SYMATTR InstName R22
SYMATTR Value 10k
SYMBOL res -1008 1360 R180
WINDOW 0 36 76 Left 2
WINDOW 3 36 40 Left 2
SYMATTR InstName R23
SYMATTR Value 47k
SYMBOL res -1008 1584 R180
WINDOW 0 36 76 Left 2
WINDOW 3 36 40 Left 2
SYMATTR InstName R24
SYMATTR Value 20k
SYMBOL res -912 1584 R180
WINDOW 0 36 76 Left 2
WINDOW 3 36 40 Left 2
SYMATTR InstName R25
SYMATTR Value 1.5k
SYMBOL OpAmps\\LT1638 -816 1344 R0
SYMATTR InstName U7
SYMBOL Optos\\4N25A -608 1472 R0
SYMATTR InstName U8
SYMBOL res -448 1456 R0
SYMATTR InstName R26
SYMATTR Value 2k
SYMBOL res -448 1536 R0
SYMATTR InstName R27
SYMATTR Value 1.5K
SYMBOL cap -304 928 R90
WINDOW 0 0 32 VBottom 2
WINDOW 3 32 32 VTop 2
SYMATTR InstName C8
SYMATTR Value 1µ
TEXT -1248 456 Left 2 !.tran 4
