Version 4
SHEET 1 2288 852
WIRE -880 -272 -976 -272
WIRE -976 -208 -976 -272
WIRE 640 -192 576 -192
WIRE 784 -192 720 -192
WIRE 1184 -192 784 -192
WIRE -192 -144 -352 -144
WIRE -64 -144 -112 -144
WIRE 1024 -128 976 -128
WIRE 752 -112 704 -112
WIRE -752 -80 -832 -80
WIRE -608 -64 -688 -64
WIRE -1280 -48 -1360 -48
WIRE -1120 -48 -1216 -48
WIRE -976 -48 -976 -128
WIRE -976 -48 -1040 -48
WIRE -752 -48 -976 -48
WIRE -352 -32 -352 -144
WIRE -176 -32 -352 -32
WIRE 1072 -32 1024 -32
WIRE -720 -16 -720 -32
WIRE -64 -16 -64 -144
WIRE -64 -16 -112 -16
WIRE 96 -16 -64 -16
WIRE 432 -16 160 -16
WIRE -832 0 -832 -80
WIRE -768 0 -832 0
WIRE -256 0 -416 0
WIRE -176 0 -256 0
WIRE -976 16 -976 -48
WIRE -832 16 -832 0
WIRE -1360 32 -1360 -48
WIRE -768 32 -768 0
WIRE -608 32 -768 32
WIRE 704 32 704 -32
WIRE -352 48 -352 -32
WIRE -256 48 -256 0
WIRE 432 48 432 -16
WIRE 576 48 576 -192
WIRE 576 48 512 48
WIRE 672 48 576 48
WIRE 1088 48 1024 48
WIRE 784 64 784 -192
WIRE 784 64 736 64
WIRE 880 64 784 64
WIRE 976 64 976 -128
WIRE 976 64 960 64
WIRE 992 64 976 64
WIRE 672 80 640 80
WIRE 1104 80 1104 -128
WIRE 1104 80 1056 80
WIRE 1184 80 1104 80
WIRE 992 96 944 96
WIRE -976 112 -976 96
WIRE -832 112 -832 96
WIRE 640 112 640 80
WIRE -352 144 -352 128
WIRE -256 144 -256 128
WIRE -256 144 -352 144
WIRE -176 144 -256 144
WIRE -48 144 -96 144
WIRE 944 144 944 96
WIRE -48 176 -48 144
WIRE 704 192 704 96
WIRE 1024 192 1024 112
WIRE -2048 256 -2048 224
WIRE -2048 400 -2048 336
WIRE -1968 400 -2048 400
WIRE -2272 432 -2272 416
WIRE -2128 432 -2272 432
WIRE -2048 432 -2048 400
FLAG 640 112 0
FLAG 944 144 0
FLAG -2112 -48 0
FLAG 704 272 0
FLAG 1024 272 0
FLAG 1072 -32 0
FLAG 752 -112 0
FLAG -2016 -96 0
FLAG -1360 112 0
FLAG -2272 592 0
FLAG -2272 352 0
FLAG -2048 144 0
FLAG -976 112 0
FLAG -832 112 0
FLAG -800 -272 0
FLAG -720 -16 0
FLAG -976 -272 V1
FLAG -720 -96 V1
FLAG -400 -240 V2
FLAG -400 -160 Ocom
FLAG -416 -64 V2
FLAG -48 176 0
FLAG -144 -48 V2
FLAG -144 16 Ocom
FLAG -256 144 Ocom
SYMBOL voltage -2112 -144 R0
WINDOW 123 0 0 Left 0
WINDOW 39 0 0 Left 0
SYMATTR InstName V1
SYMATTR Value SINE(0.5 0.5 100 0 0)
SYMBOL res 528 32 R90
WINDOW 0 0 56 VBottom 2
WINDOW 3 32 56 VTop 2
SYMATTR InstName R1
SYMATTR Value 100k
SYMBOL Opamps\\OP284 704 0 R0
SYMATTR InstName U1
SYMBOL Opamps\\OP284 1024 16 R0
SYMATTR InstName U2
SYMBOL res 976 48 R90
WINDOW 0 0 56 VBottom 2
WINDOW 3 32 56 VTop 2
SYMATTR InstName R2
SYMATTR Value 10000
SYMBOL res 736 -208 R90
WINDOW 0 0 56 VBottom 2
WINDOW 3 32 56 VTop 2
SYMATTR InstName R3
SYMATTR Value 100k
SYMBOL res 1120 -144 R90
WINDOW 0 -7 63 VBottom 2
WINDOW 3 32 56 VTop 2
SYMATTR InstName R5
SYMATTR Value 10000
SYMBOL voltage 704 -16 R180
WINDOW 0 24 96 Left 2
WINDOW 3 24 16 Left 2
WINDOW 123 0 0 Left 0
WINDOW 39 0 0 Left 0
SYMATTR InstName V2
SYMATTR Value 5
SYMBOL voltage 1024 64 R180
WINDOW 0 24 96 Left 2
WINDOW 3 24 16 Left 2
WINDOW 123 0 0 Left 0
WINDOW 39 0 0 Left 0
SYMATTR InstName V3
SYMATTR Value 5
SYMBOL voltage 704 176 R0
WINDOW 123 0 0 Left 0
WINDOW 39 0 0 Left 0
SYMATTR InstName V4
SYMATTR Value -5
SYMBOL voltage 1024 176 R0
WINDOW 123 0 0 Left 0
WINDOW 39 0 0 Left 0
SYMATTR InstName V5
SYMATTR Value -5
SYMBOL voltage -2016 -192 R0
WINDOW 123 0 0 Left 0
WINDOW 39 0 0 Left 0
SYMATTR InstName V6
SYMATTR Value 2
SYMBOL voltage -1360 16 R0
WINDOW 123 0 0 Left 0
WINDOW 39 0 0 Left 0
SYMATTR InstName V7
SYMATTR Value SINE(1.67 1.67 1)
SYMBOL res -2032 416 R90
WINDOW 0 0 56 VBottom 2
WINDOW 3 32 56 VTop 2
SYMATTR InstName R9
SYMATTR Value 100000
SYMBOL voltage -2272 496 R0
WINDOW 123 0 0 Left 0
WINDOW 39 0 0 Left 0
SYMATTR InstName V8
SYMATTR Value SINE(1.5 1.5 10)
SYMBOL res -2288 416 R0
SYMATTR InstName R10
SYMATTR Value 100000
SYMBOL cap -2288 352 R0
SYMATTR InstName C3
SYMATTR Value 1µ
SYMBOL res -2064 240 R0
SYMATTR InstName R11
SYMATTR Value 100000
SYMBOL voltage -2048 240 R180
WINDOW 0 24 96 Left 2
WINDOW 3 24 16 Left 2
WINDOW 123 0 0 Left 0
WINDOW 39 0 0 Left 0
SYMATTR InstName V9
SYMATTR Value -0.4
SYMBOL cap -1216 -64 R90
WINDOW 0 0 32 VBottom 2
WINDOW 3 32 32 VTop 2
SYMATTR InstName C1
SYMATTR Value 0.33µ
SYMBOL res -1024 -64 R90
WINDOW 0 0 56 VBottom 2
WINDOW 3 32 56 VTop 2
SYMATTR InstName R8
SYMATTR Value 10k
SYMBOL res -960 -112 R180
WINDOW 0 36 76 Left 2
WINDOW 3 36 40 Left 2
SYMATTR InstName R12
SYMATTR Value 50k
SYMBOL res -960 112 R180
WINDOW 0 36 76 Left 2
WINDOW 3 36 40 Left 2
SYMATTR InstName R13
SYMATTR Value 20k
SYMBOL res -816 112 R180
WINDOW 0 36 76 Left 2
WINDOW 3 36 40 Left 2
SYMATTR InstName R16
SYMATTR Value 1.5k
SYMBOL voltage -784 -272 R90
WINDOW 0 -32 56 VBottom 2
WINDOW 3 32 56 VTop 2
WINDOW 123 0 0 Left 0
WINDOW 39 0 0 Left 0
SYMATTR InstName V12
SYMATTR Value -5
SYMBOL OpAmps\\LT1638 -720 -128 R0
SYMATTR InstName U3
SYMBOL Optos\\4N25A -512 0 R0
SYMATTR InstName U4
SYMBOL voltage -400 -256 R0
WINDOW 123 0 0 Left 0
WINDOW 39 0 0 Left 0
SYMATTR InstName V13
SYMATTR Value 5V
SYMBOL res -368 32 R0
SYMATTR InstName R17
SYMATTR Value 2k
SYMBOL res -272 32 R0
SYMATTR InstName R18
SYMATTR Value 1.5K
SYMBOL res -80 128 R90
WINDOW 0 0 56 VBottom 2
WINDOW 3 32 56 VTop 2
SYMATTR InstName R19
SYMATTR Value 1Meg
SYMBOL OpAmps\\LT1638 -144 -80 R0
SYMATTR InstName U5
SYMBOL res -96 -160 R90
WINDOW 0 0 56 VBottom 2
WINDOW 3 32 56 VTop 2
SYMATTR InstName R20
SYMATTR Value 2200
SYMBOL cap 160 -32 R90
WINDOW 0 0 32 VBottom 2
WINDOW 3 32 32 VTop 2
SYMATTR InstName C2
SYMATTR Value 0.1µ
TEXT 816 400 Left 2 !.tran 2
