Version 4
SHEET 1 1652 680
WIRE 592 -128 496 -128
WIRE 496 -64 496 -128
WIRE 1280 0 1120 0
WIRE 1408 0 1360 0
WIRE 720 64 640 64
WIRE 864 80 784 80
WIRE 192 96 112 96
WIRE 352 96 256 96
WIRE 496 96 496 16
WIRE 496 96 432 96
WIRE 720 96 496 96
WIRE 1120 112 1120 0
WIRE 1296 112 1120 112
WIRE 112 128 112 96
WIRE 752 128 752 112
WIRE 1408 128 1408 0
WIRE 1408 128 1360 128
WIRE 1552 128 1408 128
WIRE 640 144 640 64
WIRE 704 144 640 144
WIRE 1216 144 1056 144
WIRE 1296 144 1216 144
WIRE 496 160 496 96
WIRE 640 160 640 144
WIRE 704 176 704 144
WIRE 864 176 704 176
WIRE 1120 192 1120 112
WIRE 1216 192 1216 144
WIRE 112 256 112 208
WIRE 496 256 496 240
WIRE 640 256 640 240
WIRE 1120 288 1120 272
WIRE 1216 288 1216 272
WIRE 1216 288 1120 288
WIRE 1296 288 1216 288
WIRE 1424 288 1376 288
WIRE 1424 320 1424 288
FLAG 112 256 0
FLAG 496 256 0
FLAG 640 256 0
FLAG 752 128 0
FLAG 496 -128 V1
FLAG 752 48 V1
FLAG 1072 -96 V2
FLAG 1072 -16 Ocom
FLAG 1056 80 V2
FLAG 1424 320 0
FLAG 1328 96 V2
FLAG 1328 160 Ocom
FLAG 1552 128 Out
IOPIN 1552 128 Out
FLAG 1216 288 Ocom
FLAG 672 -128 0
SYMBOL voltage 112 112 R0
WINDOW 123 0 0 Left 0
WINDOW 39 0 0 Left 0
SYMATTR InstName V1
SYMATTR Value SINE(1.6 1.6 1)
SYMBOL cap 256 80 R90
WINDOW 0 0 32 VBottom 2
WINDOW 3 32 32 VTop 2
SYMATTR InstName C1
SYMATTR Value 0.33µ
SYMBOL res 448 80 R90
WINDOW 0 0 56 VBottom 2
WINDOW 3 32 56 VTop 2
SYMATTR InstName R1
SYMATTR Value 10k
SYMBOL res 512 32 R180
WINDOW 0 36 76 Left 2
WINDOW 3 36 40 Left 2
SYMATTR InstName R2
SYMATTR Value 50k
SYMBOL res 512 256 R180
WINDOW 0 36 76 Left 2
WINDOW 3 36 40 Left 2
SYMATTR InstName R3
SYMATTR Value 20k
SYMBOL res 656 256 R180
WINDOW 0 36 76 Left 2
WINDOW 3 36 40 Left 2
SYMATTR InstName R4
SYMATTR Value 1.5k
SYMBOL OpAmps\\LT1638 752 16 R0
SYMATTR InstName U1
SYMBOL Optos\\4N25A 960 144 R0
SYMATTR InstName U2
SYMBOL voltage 1072 -112 R0
WINDOW 123 0 0 Left 0
WINDOW 39 0 0 Left 0
SYMATTR InstName V3
SYMATTR Value 5V
SYMBOL res 1104 176 R0
SYMATTR InstName R5
SYMATTR Value 2k
SYMBOL res 1200 176 R0
SYMATTR InstName R6
SYMATTR Value 1.5K
SYMBOL res 1392 272 R90
WINDOW 0 0 56 VBottom 2
WINDOW 3 32 56 VTop 2
SYMATTR InstName R7
SYMATTR Value 1Meg
SYMBOL OpAmps\\LT1638 1328 64 R0
SYMATTR InstName U3
SYMBOL res 1376 -16 R90
WINDOW 0 0 56 VBottom 2
WINDOW 3 32 56 VTop 2
SYMATTR InstName R8
SYMATTR Value 2200
SYMBOL voltage 576 -128 R270
WINDOW 0 32 56 VTop 2
WINDOW 3 -32 56 VBottom 2
WINDOW 123 0 0 Left 0
WINDOW 39 0 0 Left 0
SYMATTR InstName V2
SYMATTR Value 5V
TEXT 80 344 Left 2 !.tran 4
