Version 4
SHEET 1 984 680
WIRE 208 -624 112 -624
WIRE 240 -624 208 -624
WIRE 432 -624 240 -624
WIRE 112 -608 112 -624
WIRE 432 -608 432 -624
WIRE 112 -496 112 -528
WIRE 112 -496 0 -496
WIRE 432 -496 432 -528
WIRE 512 -496 432 -496
WIRE 112 -464 112 -496
WIRE 432 -464 432 -496
WIRE 240 -240 240 -624
WIRE 400 -240 240 -240
WIRE 752 -240 736 -240
WIRE 720 -192 720 -208
WIRE 112 -112 112 -384
WIRE 224 -112 112 -112
WIRE 416 -112 304 -112
WIRE 432 -112 432 -384
WIRE 432 -112 416 -112
WIRE 112 -32 112 -112
WIRE 416 -32 416 -112
WIRE 416 80 416 48
WIRE 112 112 112 48
FLAG 112 192 0
FLAG 416 80 0
FLAG 208 -704 0
FLAG 832 -240 0
FLAG 720 -192 0
SYMBOL voltage 112 96 R0
WINDOW 123 0 0 Left 0
WINDOW 39 0 0 Left 0
SYMATTR InstName V1
SYMATTR Value SINE(0 1 10)
SYMBOL res 96 -48 R0
SYMATTR InstName R1
SYMATTR Value 1000
SYMBOL res 320 -128 R90
WINDOW 0 0 56 VBottom 2
WINDOW 3 32 56 VTop 2
SYMATTR InstName R2
SYMATTR Value 1000
SYMBOL res 432 64 R180
WINDOW 0 36 76 Left 2
WINDOW 3 36 40 Left 2
SYMATTR InstName R3
SYMATTR Value 1000
SYMBOL res 96 -480 R0
SYMATTR InstName R4
SYMATTR Value 470000
SYMBOL res 416 -480 R0
SYMATTR InstName R5
SYMATTR Value 470000
SYMBOL res 128 -512 R180
WINDOW 0 36 76 Left 2
WINDOW 3 36 40 Left 2
SYMATTR InstName R6
SYMATTR Value 1000000
SYMBOL res 448 -512 R180
WINDOW 0 36 76 Left 2
WINDOW 3 36 40 Left 2
SYMATTR InstName R7
SYMATTR Value 1000000
SYMBOL voltage 208 -608 R180
WINDOW 0 24 96 Left 2
WINDOW 3 24 16 Left 2
WINDOW 123 0 0 Left 0
WINDOW 39 0 0 Left 0
SYMATTR InstName V2
SYMATTR Value 5
SYMBOL Opamps\\OP284 640 -240 R270
SYMATTR InstName U1
SYMBOL voltage 736 -240 R270
WINDOW 0 32 56 VTop 2
WINDOW 3 -32 56 VBottom 2
WINDOW 123 0 0 Left 0
WINDOW 39 0 0 Left 0
SYMATTR InstName V3
SYMATTR Value -5
TEXT 48 216 Left 2 !.tran 0.1
