Version 4
SHEET 1 2288 996
WIRE 400 -304 400 -320
WIRE 624 -304 400 -304
WIRE 1104 -304 624 -304
WIRE 544 -288 544 -320
WIRE 608 -288 544 -288
WIRE 1104 -288 608 -288
WIRE 1152 -192 1056 -192
WIRE 1280 -192 1152 -192
WIRE -1200 -144 -1200 -176
WIRE -1072 -144 -1200 -144
WIRE -1200 -128 -1200 -144
WIRE -1312 -96 -1520 -96
WIRE 1280 -96 1280 -192
WIRE -1392 -80 -1536 -80
WIRE -1312 -80 -1312 -96
WIRE -1344 -64 -1376 -64
WIRE -1200 -48 -1280 -48
WIRE -1424 -32 -1520 -32
WIRE -1344 -32 -1424 -32
WIRE 464 -32 432 -32
WIRE 576 -32 544 -32
WIRE -1392 -16 -1392 -80
WIRE -1312 -16 -1392 -16
WIRE 784 -16 752 -16
WIRE 896 -16 864 -16
WIRE -1376 16 -1376 -64
WIRE -1200 16 -1200 -48
WIRE -1200 16 -1376 16
WIRE -1424 32 -1424 -32
WIRE -1072 32 -1424 32
WIRE 608 32 608 -288
WIRE 608 32 496 32
WIRE 816 32 608 32
WIRE 320 48 112 48
WIRE 432 48 432 -32
WIRE 432 48 400 48
WIRE 464 48 432 48
WIRE 816 48 816 32
WIRE 576 64 576 -32
WIRE 576 64 528 64
WIRE 656 64 576 64
WIRE 752 64 752 -16
WIRE 752 64 736 64
WIRE 784 64 752 64
WIRE 464 80 432 80
WIRE 896 80 896 -16
WIRE 896 80 848 80
WIRE 976 80 896 80
WIRE 1216 80 1056 80
WIRE 1280 80 1280 -16
WIRE 1280 80 1216 80
WIRE 624 96 624 -304
WIRE 624 96 496 96
WIRE 784 96 736 96
WIRE 432 112 432 80
WIRE 624 112 624 96
WIRE 816 112 624 112
WIRE 736 144 736 96
WIRE 1216 240 1216 80
WIRE 1424 240 1216 240
WIRE 112 304 112 48
WIRE 1152 304 1152 -192
WIRE 1424 304 1152 304
WIRE -672 400 -672 384
WIRE -1136 432 -1184 432
WIRE -992 432 -992 400
WIRE -992 432 -1056 432
WIRE -928 432 -992 432
WIRE -992 496 -992 432
WIRE -976 816 -992 816
WIRE -1008 832 -1168 832
WIRE -1008 848 -1008 832
WIRE -944 848 -1008 848
WIRE -944 864 -944 848
WIRE -1168 880 -1168 832
WIRE -1168 880 -1312 880
WIRE -1104 880 -1120 880
WIRE -992 880 -992 816
WIRE -992 880 -1024 880
WIRE -976 880 -992 880
WIRE -1168 896 -1328 896
WIRE -896 896 -896 816
WIRE -896 896 -912 896
WIRE -784 896 -896 896
WIRE -976 912 -1024 912
WIRE -1024 944 -1024 912
WIRE -1168 992 -1168 896
WIRE -944 992 -944 928
WIRE -944 992 -1168 992
FLAG 432 112 0
FLAG 736 144 0
FLAG 112 384 0
FLAG -528 16 0
FLAG -672 560 0
FLAG -672 320 0
FLAG -768 432 0
FLAG -1184 432 0
FLAG -1520 48 0
FLAG -1104 944 0
FLAG 976 -192 0
FLAG 400 -400 0
FLAG 544 -400 0
SYMBOL voltage 112 288 R0
WINDOW 123 0 0 Left 0
WINDOW 39 0 0 Left 0
SYMATTR InstName V1
SYMATTR Value SINE(0.5 0.5 100 0 0)
SYMBOL res 416 32 R90
WINDOW 0 -10 60 VBottom 2
WINDOW 3 32 56 VTop 2
SYMATTR InstName R1
SYMATTR Value 1000
SYMBOL Opamps\\OP284 496 0 R0
SYMATTR InstName U1
SYMBOL res 752 48 R90
WINDOW 0 0 56 VBottom 2
WINDOW 3 32 56 VTop 2
SYMATTR InstName R2
SYMATTR Value 10000
SYMBOL res 560 -48 R90
WINDOW 0 0 56 VBottom 2
WINDOW 3 32 56 VTop 2
SYMATTR InstName R3
SYMATTR Value 1000
SYMBOL res 880 -32 R90
WINDOW 0 -7 63 VBottom 2
WINDOW 3 32 56 VTop 2
SYMATTR InstName R5
SYMATTR Value 10000
SYMBOL res 1072 -208 R90
WINDOW 0 0 56 VBottom 2
WINDOW 3 32 56 VTop 2
SYMATTR InstName R6
SYMATTR Value 100000
SYMBOL res 1296 0 R180
WINDOW 0 36 76 Left 2
WINDOW 3 36 40 Left 2
SYMATTR InstName R7
SYMATTR Value 10000
SYMBOL res 1072 64 R90
WINDOW 0 0 56 VBottom 2
WINDOW 3 32 56 VTop 2
SYMATTR InstName R4
SYMATTR Value 100000
SYMBOL voltage -528 -80 R0
WINDOW 123 0 0 Left 0
WINDOW 39 0 0 Left 0
SYMATTR InstName V6
SYMATTR Value 2
SYMBOL voltage -672 464 R0
WINDOW 123 0 0 Left 0
WINDOW 39 0 0 Left 0
SYMATTR InstName V7
SYMATTR Value ""
SYMBOL res -688 384 R0
SYMATTR InstName R8
SYMATTR Value 100000
SYMBOL cap -688 320 R0
SYMATTR InstName C1
SYMATTR Value 1µ
SYMBOL res -1040 416 R90
WINDOW 0 0 56 VBottom 2
WINDOW 3 32 56 VTop 2
SYMATTR InstName R9
SYMATTR Value 3000000
SYMBOL res -832 416 R90
WINDOW 0 0 56 VBottom 2
WINDOW 3 32 56 VTop 2
SYMATTR InstName R10
SYMATTR Value 10000000
SYMBOL voltage -864 432 R270
WINDOW 0 32 56 VTop 2
WINDOW 3 -32 56 VBottom 2
WINDOW 123 0 0 Left 0
WINDOW 39 0 0 Left 0
SYMATTR InstName V8
SYMATTR Value 1
SYMBOL res -1008 304 R0
SYMATTR InstName R11
SYMATTR Value 3000000
SYMBOL voltage -1520 -48 R0
SYMATTR InstName V9
SYMBOL Opamps\\OP284 -1312 -112 R0
SYMATTR InstName U3
SYMBOL res -1216 -144 R0
SYMATTR InstName R12
SYMATTR Value 10k
SYMBOL res -1216 -272 R0
SYMATTR InstName R13
SYMATTR Value 560k
SYMBOL Opamps\\LT1078 -944 832 R0
WINDOW 0 15 46 Left 2
SYMATTR InstName U4
SYMBOL res -1008 864 R90
WINDOW 0 0 56 VBottom 2
WINDOW 3 -25 124 VTop 2
SYMATTR InstName R
SYMATTR Value 2000000
SYMBOL res -1008 928 R90
WINDOW 0 62 104 VBottom 2
WINDOW 3 35 19 VTop 2
SYMATTR InstName R15
SYMATTR Value 1000000
SYMBOL res -880 800 R90
WINDOW 0 0 56 VBottom 2
WINDOW 3 -24 -32 VTop 2
SYMATTR InstName R16
SYMATTR Value 2000000
SYMBOL voltage 400 -304 R180
WINDOW 123 0 0 Left 0
WINDOW 39 0 0 Left 0
SYMATTR InstName V10
SYMATTR Value 5
SYMBOL voltage 544 -304 R180
WINDOW 0 24 96 Left 2
WINDOW 3 24 16 Left 2
WINDOW 123 0 0 Left 0
WINDOW 39 0 0 Left 0
SYMATTR InstName V11
SYMATTR Value -5
SYMBOL Opamps\\OP284 816 16 R0
SYMATTR InstName U2
TEXT 608 400 Left 2 !.tran 0.1
