Version 4
SHEET 1 2288 2436
WIRE -928 -208 -928 -272
WIRE -752 -80 -832 -80
WIRE -608 -64 -688 -64
WIRE -1168 -48 -1232 -48
WIRE -1072 -48 -1104 -48
WIRE -928 -48 -928 -128
WIRE -928 -48 -992 -48
WIRE -752 -48 -928 -48
WIRE -64 -32 -240 -32
WIRE -720 -16 -720 -32
WIRE -240 -16 -240 -32
WIRE -240 -16 -272 -16
WIRE -832 0 -832 -80
WIRE -768 0 -832 0
WIRE -336 0 -416 0
WIRE -272 0 -272 -16
WIRE -272 0 -336 0
WIRE -928 16 -928 -48
WIRE -832 16 -832 0
WIRE -768 32 -768 0
WIRE -608 32 -768 32
WIRE -928 112 -928 96
WIRE -832 112 -832 96
WIRE -2048 256 -2048 224
WIRE -912 304 -944 304
WIRE -800 304 -832 304
WIRE -432 304 -800 304
WIRE -320 304 -368 304
WIRE -176 304 -240 304
WIRE -48 304 -176 304
WIRE -176 336 -176 304
WIRE -592 352 -624 352
WIRE -480 352 -512 352
WIRE -2048 400 -2048 336
WIRE -1968 400 -2048 400
WIRE -2272 432 -2272 416
WIRE -2128 432 -2272 432
WIRE -2048 432 -2048 400
WIRE -944 432 -944 304
WIRE -944 432 -1008 432
WIRE -912 432 -944 432
WIRE -800 448 -800 304
WIRE -800 448 -848 448
WIRE -736 448 -800 448
WIRE -624 448 -624 352
WIRE -624 448 -656 448
WIRE -592 448 -624 448
WIRE -912 464 -944 464
WIRE -480 464 -480 352
WIRE -480 464 -528 464
WIRE -432 464 -480 464
WIRE -320 464 -368 464
WIRE -176 464 -176 416
WIRE -176 464 -240 464
WIRE -48 464 -176 464
WIRE -592 480 -640 480
WIRE -944 496 -944 464
WIRE -640 528 -640 480
WIRE -672 688 -720 688
WIRE -560 688 -592 688
WIRE -720 784 -720 688
WIRE -672 784 -720 784
WIRE -560 800 -560 688
WIRE -560 800 -608 800
WIRE -496 800 -560 800
WIRE -368 800 -416 800
WIRE -336 800 -368 800
WIRE -208 800 -256 800
WIRE -672 816 -768 816
WIRE -368 880 -368 800
WIRE -336 880 -368 880
WIRE -672 896 -720 896
WIRE -560 896 -592 896
WIRE -208 896 -208 800
WIRE -208 896 -272 896
WIRE -176 896 -208 896
WIRE -64 896 -112 896
WIRE -336 912 -368 912
WIRE -720 976 -720 896
WIRE -672 976 -720 976
WIRE -560 992 -560 896
WIRE -560 992 -608 992
WIRE -496 992 -560 992
WIRE -368 992 -368 912
WIRE -368 992 -416 992
WIRE -672 1008 -768 1008
WIRE -752 1648 -832 1648
WIRE -608 1664 -688 1664
WIRE -752 1680 -928 1680
WIRE -720 1712 -720 1696
WIRE -832 1728 -832 1648
WIRE -768 1728 -832 1728
WIRE -336 1728 -416 1728
WIRE -272 1728 -336 1728
WIRE -768 1760 -768 1728
WIRE -608 1760 -768 1760
WIRE -928 2048 -928 1984
WIRE -752 2176 -832 2176
WIRE -608 2192 -688 2192
WIRE -1072 2208 -1104 2208
WIRE -928 2208 -928 2128
WIRE -928 2208 -992 2208
WIRE -752 2208 -928 2208
WIRE -720 2240 -720 2224
WIRE -832 2256 -832 2176
WIRE -768 2256 -832 2256
WIRE -336 2256 -416 2256
WIRE -272 2256 -272 2240
WIRE -272 2256 -336 2256
WIRE -928 2272 -928 2208
WIRE -832 2272 -832 2256
WIRE -768 2288 -768 2256
WIRE -608 2288 -768 2288
WIRE -928 2368 -928 2352
WIRE -832 2368 -832 2352
FLAG -944 496 0
FLAG -640 528 0
FLAG -2112 -48 0
FLAG -2016 -96 0
FLAG -1312 -48 0
FLAG -2272 592 0
FLAG -2272 352 0
FLAG -2048 144 0
FLAG -928 112 0
FLAG -832 112 0
FLAG -720 -16 0
FLAG 32 -304 V2
FLAG -416 -64 V2
FLAG 32 -384 0
FLAG -336 160 0
FLAG -880 416 V2
FLAG -560 432 V2
FLAG 176 -304 V3
FLAG 176 -384 0
FLAG -880 480 V3
FLAG -560 496 V3
FLAG 0 -32 Vmod
FLAG -1088 432 Vmod
FLAG -928 -272 V2
FLAG -720 -96 V2
FLAG -720 1712 0
FLAG -416 1664 V2
FLAG -336 1888 0
FLAG -720 1632 V2
FLAG -48 304 Vsense-
FLAG -48 464 Vsense+
FLAG -928 2368 0
FLAG -832 2368 0
FLAG -720 2240 0
FLAG -416 2192 V2
FLAG -336 2416 0
FLAG -928 1984 V2
FLAG -720 2160 V2
FLAG -928 1680 Vsense-
FLAG -768 816 Vsense-
FLAG -768 1008 Vsense+
FLAG -640 832 V3
FLAG -640 1024 V3
FLAG -640 768 V2
FLAG -640 960 V2
FLAG -304 864 V2
FLAG -304 928 V3
FLAG -64 896 VsenseDiff
SYMBOL voltage -2112 -144 R0
WINDOW 123 0 0 Left 0
WINDOW 39 0 0 Left 0
SYMATTR InstName V1
SYMATTR Value SINE(0.5 0.5 100 0 0)
SYMBOL res -992 416 R90
WINDOW 0 0 56 VBottom 2
WINDOW 3 32 56 VTop 2
SYMATTR InstName R1
SYMATTR Value 470k
SYMBOL Opamps\\OP284 -880 384 R0
SYMATTR InstName U1
SYMBOL Opamps\\OP284 -560 400 R0
SYMATTR InstName U2
SYMBOL res -640 432 R90
WINDOW 0 0 56 VBottom 2
WINDOW 3 32 56 VTop 2
SYMATTR InstName R2
SYMATTR Value 10k
SYMBOL res -816 288 R90
WINDOW 0 0 56 VBottom 2
WINDOW 3 32 56 VTop 2
SYMATTR InstName R3
SYMATTR Value 10Meg
SYMBOL res -496 336 R90
WINDOW 0 7 104 VBottom 2
WINDOW 3 33 60 VTop 2
SYMATTR InstName R5
SYMATTR Value 10k
SYMBOL voltage -2016 -192 R0
WINDOW 123 0 0 Left 0
WINDOW 39 0 0 Left 0
SYMATTR InstName V6
SYMATTR Value 2
SYMBOL voltage -1216 -48 R90
WINDOW 123 0 0 Left 0
WINDOW 39 0 0 Left 0
SYMATTR InstName V7
SYMATTR Value SINE(1 1 1)
SYMBOL res -2032 416 R90
WINDOW 0 0 56 VBottom 2
WINDOW 3 32 56 VTop 2
SYMATTR InstName R9
SYMATTR Value 100000
SYMBOL voltage -2272 496 R0
WINDOW 123 0 0 Left 0
WINDOW 39 0 0 Left 0
SYMATTR InstName V8
SYMATTR Value SINE(1.5 1.5 10)
SYMBOL res -2288 416 R0
SYMATTR InstName R10
SYMATTR Value 100000
SYMBOL cap -2288 352 R0
SYMATTR InstName C3
SYMATTR Value 1µ
SYMBOL res -2064 240 R0
SYMATTR InstName R11
SYMATTR Value 100000
SYMBOL voltage -2048 240 R180
WINDOW 0 24 96 Left 2
WINDOW 3 24 16 Left 2
WINDOW 123 0 0 Left 0
WINDOW 39 0 0 Left 0
SYMATTR InstName V9
SYMATTR Value -0.4
SYMBOL cap -1104 -64 R90
WINDOW 0 0 32 VBottom 2
WINDOW 3 32 32 VTop 2
SYMATTR InstName C1
SYMATTR Value 0.3µ
SYMBOL res -976 -64 R90
WINDOW 0 0 56 VBottom 2
WINDOW 3 32 56 VTop 2
SYMATTR InstName R8
SYMATTR Value 10k
SYMBOL res -912 -112 R180
WINDOW 0 36 76 Left 2
WINDOW 3 36 40 Left 2
SYMATTR InstName R12
SYMATTR Value 47k
SYMBOL res -912 112 R180
WINDOW 0 36 76 Left 2
WINDOW 3 36 40 Left 2
SYMATTR InstName R13
SYMATTR Value 20k
SYMBOL res -816 112 R180
WINDOW 0 36 76 Left 2
WINDOW 3 36 40 Left 2
SYMATTR InstName R16
SYMATTR Value 1.5k
SYMBOL OpAmps\\LT1638 -720 -128 R0
SYMATTR InstName U3
SYMBOL Optos\\4N25A -512 0 R0
SYMATTR InstName U4
SYMBOL voltage 32 -288 R180
WINDOW 123 0 0 Left 0
WINDOW 39 0 0 Left 0
SYMATTR InstName V13
SYMATTR Value 5V
SYMBOL res -352 -16 R0
SYMATTR InstName R17
SYMATTR Value 2k
SYMBOL res -352 64 R0
SYMATTR InstName R18
SYMATTR Value 1.5K
SYMBOL cap 0 -48 R90
WINDOW 0 0 32 VBottom 2
WINDOW 3 32 32 VTop 2
SYMATTR InstName C2
SYMATTR Value 1µ
SYMBOL voltage 176 -288 R180
WINDOW 123 0 0 Left 0
WINDOW 39 0 0 Left 0
SYMATTR InstName V2
SYMATTR Value -5
SYMBOL cap -368 448 R90
WINDOW 0 0 32 VBottom 2
WINDOW 3 32 32 VTop 2
SYMATTR InstName C4
SYMATTR Value 1µ
SYMBOL cap -368 288 R90
WINDOW 0 0 32 VBottom 2
WINDOW 3 32 32 VTop 2
SYMATTR InstName C5
SYMATTR Value 1µ
SYMBOL res -224 288 R90
WINDOW 0 0 56 VBottom 2
WINDOW 3 32 56 VTop 2
SYMATTR InstName R4
SYMATTR Value 1Meg
SYMBOL res -224 448 R90
WINDOW 0 0 56 VBottom 2
WINDOW 3 32 56 VTop 2
SYMATTR InstName R6
SYMATTR Value 1Meg
SYMBOL res -192 320 R0
SYMATTR InstName GRT
SYMATTR Value 100k
SYMBOL OpAmps\\LT1638 -720 1600 R0
SYMATTR InstName U5
SYMBOL Optos\\4N25A -512 1728 R0
SYMATTR InstName U6
SYMBOL res -352 1712 R0
SYMATTR InstName R20
SYMATTR Value 2k
SYMBOL res -352 1792 R0
SYMATTR InstName R21
SYMATTR Value 1.5K
SYMBOL cap -1104 2192 R90
WINDOW 0 0 32 VBottom 2
WINDOW 3 32 32 VTop 2
SYMATTR InstName C7
SYMATTR Value 0.3µ
SYMBOL res -976 2192 R90
WINDOW 0 0 56 VBottom 2
WINDOW 3 32 56 VTop 2
SYMATTR InstName R22
SYMATTR Value 10k
SYMBOL res -912 2144 R180
WINDOW 0 36 76 Left 2
WINDOW 3 36 40 Left 2
SYMATTR InstName R23
SYMATTR Value 47k
SYMBOL res -912 2368 R180
WINDOW 0 36 76 Left 2
WINDOW 3 36 40 Left 2
SYMATTR InstName R24
SYMATTR Value 20k
SYMBOL res -816 2368 R180
WINDOW 0 36 76 Left 2
WINDOW 3 36 40 Left 2
SYMATTR InstName R25
SYMATTR Value 1.5k
SYMBOL OpAmps\\LT1638 -720 2128 R0
SYMATTR InstName U7
SYMBOL Optos\\4N25A -512 2256 R0
SYMATTR InstName U8
SYMBOL res -352 2240 R0
SYMATTR InstName R26
SYMATTR Value 2k
SYMBOL res -352 2320 R0
SYMATTR InstName R27
SYMATTR Value 1.5K
SYMBOL cap -208 1712 R90
WINDOW 0 0 32 VBottom 2
WINDOW 3 32 32 VTop 2
SYMATTR InstName C8
SYMATTR Value 1µ
SYMBOL Opamps\\OP284 -640 736 R0
SYMATTR InstName U9
SYMBOL Opamps\\OP284 -640 928 R0
SYMATTR InstName U10
SYMBOL Opamps\\OP284 -304 832 R0
SYMATTR InstName U11
SYMBOL res -576 672 R90
WINDOW 0 0 56 VBottom 2
WINDOW 3 32 56 VTop 2
SYMATTR InstName R7
SYMATTR Value 22k
SYMBOL res -576 880 R90
WINDOW 0 0 56 VBottom 2
WINDOW 3 32 56 VTop 2
SYMATTR InstName R14
SYMATTR Value 22k
SYMBOL res -400 784 R90
WINDOW 0 0 56 VBottom 2
WINDOW 3 32 56 VTop 2
SYMATTR InstName R15
SYMATTR Value 47k
SYMBOL res -400 976 R90
WINDOW 0 0 56 VBottom 2
WINDOW 3 32 56 VTop 2
SYMATTR InstName R19
SYMATTR Value 47k
SYMBOL res -240 784 R90
WINDOW 0 0 56 VBottom 2
WINDOW 3 32 56 VTop 2
SYMATTR InstName R28
SYMATTR Value 47k
SYMBOL cap -112 880 R90
WINDOW 0 0 32 VBottom 2
WINDOW 3 32 32 VTop 2
SYMATTR InstName C6
SYMATTR Value 10µ
TEXT -1648 464 Left 2 !.tran 4
