Version 4
SHEET 1 2288 680
WIRE 432 -192 368 -192
WIRE 576 -192 512 -192
WIRE 976 -192 576 -192
WIRE 1184 -192 1056 -192
WIRE 1280 -192 1184 -192
WIRE 816 -128 768 -128
WIRE 544 -112 496 -112
WIRE 1280 -96 1280 -192
WIRE 864 -32 816 -32
WIRE 496 32 496 -32
WIRE 224 48 112 48
WIRE 368 48 368 -192
WIRE 368 48 304 48
WIRE 464 48 368 48
WIRE 576 64 576 -192
WIRE 576 64 528 64
WIRE 672 64 576 64
WIRE 768 64 768 -128
WIRE 768 64 752 64
WIRE 784 64 768 64
WIRE 464 80 432 80
WIRE 896 80 896 -128
WIRE 896 80 848 80
WIRE 976 80 896 80
WIRE 1216 80 1056 80
WIRE 1280 80 1280 -16
WIRE 1280 80 1216 80
WIRE 784 96 736 96
WIRE 432 112 432 80
WIRE 736 144 736 96
WIRE 496 192 496 96
WIRE 816 192 816 112
WIRE 1216 240 1216 80
WIRE 1184 272 1184 -192
WIRE -32 304 -32 288
WIRE 112 304 112 48
WIRE 112 304 -32 304
FLAG 432 112 0
FLAG 736 144 0
FLAG -256 80 0
FLAG 496 272 0
FLAG 816 272 0
FLAG 864 -32 0
FLAG 544 -112 0
FLAG -160 32 0
FLAG -32 464 0
FLAG -32 224 0
SYMBOL voltage -256 -16 R0
WINDOW 123 0 0 Left 0
WINDOW 39 0 0 Left 0
SYMATTR InstName V1
SYMATTR Value SINE(0.5 0.5 100 0 0)
SYMBOL res 320 32 R90
WINDOW 0 0 56 VBottom 2
WINDOW 3 32 56 VTop 2
SYMATTR InstName R1
SYMATTR Value 100000
SYMBOL Opamps\\OP284 496 0 R0
SYMATTR InstName U1
SYMBOL Opamps\\OP284 816 16 R0
SYMATTR InstName U2
SYMBOL res 768 48 R90
WINDOW 0 0 56 VBottom 2
WINDOW 3 32 56 VTop 2
SYMATTR InstName R2
SYMATTR Value 10000
SYMBOL res 528 -208 R90
WINDOW 0 0 56 VBottom 2
WINDOW 3 32 56 VTop 2
SYMATTR InstName R3
SYMATTR Value 100000
SYMBOL res 912 -144 R90
WINDOW 0 -7 63 VBottom 2
WINDOW 3 32 56 VTop 2
SYMATTR InstName R5
SYMATTR Value 10000
SYMBOL voltage 496 -16 R180
WINDOW 0 24 96 Left 2
WINDOW 3 24 16 Left 2
WINDOW 123 0 0 Left 0
WINDOW 39 0 0 Left 0
SYMATTR InstName V2
SYMATTR Value 5
SYMBOL voltage 816 64 R180
WINDOW 0 24 96 Left 2
WINDOW 3 24 16 Left 2
WINDOW 123 0 0 Left 0
WINDOW 39 0 0 Left 0
SYMATTR InstName V3
SYMATTR Value 5
SYMBOL res 1072 -208 R90
WINDOW 0 0 56 VBottom 2
WINDOW 3 32 56 VTop 2
SYMATTR InstName R6
SYMATTR Value 100000
SYMBOL res 1296 0 R180
WINDOW 0 36 76 Left 2
WINDOW 3 36 40 Left 2
SYMATTR InstName R7
SYMATTR Value 1000
SYMBOL res 1072 64 R90
WINDOW 0 0 56 VBottom 2
WINDOW 3 32 56 VTop 2
SYMATTR InstName R4
SYMATTR Value 100000
SYMBOL voltage 496 176 R0
WINDOW 123 0 0 Left 0
WINDOW 39 0 0 Left 0
SYMATTR InstName V4
SYMATTR Value -5
SYMBOL voltage 816 176 R0
WINDOW 123 0 0 Left 0
WINDOW 39 0 0 Left 0
SYMATTR InstName V5
SYMATTR Value -5
SYMBOL voltage -160 -64 R0
WINDOW 123 0 0 Left 0
WINDOW 39 0 0 Left 0
SYMATTR InstName V6
SYMATTR Value 2
SYMBOL voltage -32 368 R0
WINDOW 123 0 0 Left 0
WINDOW 39 0 0 Left 0
SYMATTR InstName V7
SYMATTR Value PWL file="C:\Users\rc3512hl\OneDrive - MNSCU\Summer_Research_2020\2020_WAG_Research_Documents\Lab_documents\4_wireAC\Sin_wave\PWL_modulation_simulation_powersource.txt"
SYMBOL res -48 288 R0
SYMATTR InstName R8
SYMATTR Value 100000
SYMBOL cap -48 224 R0
SYMATTR InstName C1
SYMATTR Value 1µ
TEXT 608 400 Left 2 !.tran 1
