Version 4
SHEET 1 2288 2436
WIRE -752 -208 -752 -272
WIRE -1296 -144 -1344 -144
WIRE -1568 -80 -1664 -80
WIRE -576 -80 -656 -80
WIRE -432 -64 -512 -64
WIRE -1664 -48 -1664 -80
WIRE -992 -48 -1056 -48
WIRE -896 -48 -928 -48
WIRE -752 -48 -752 -128
WIRE -752 -48 -816 -48
WIRE -576 -48 -752 -48
WIRE 112 -32 -64 -32
WIRE -1568 -16 -1584 -16
WIRE -544 -16 -544 -32
WIRE -64 -16 -64 -32
WIRE -64 -16 -96 -16
WIRE -656 0 -656 -80
WIRE -592 0 -656 0
WIRE -160 0 -240 0
WIRE -96 0 -96 -16
WIRE -96 0 -160 0
WIRE -752 16 -752 -48
WIRE -656 16 -656 0
WIRE -592 32 -592 0
WIRE -432 32 -592 32
WIRE -1664 48 -1664 16
WIRE -1568 48 -1664 48
WIRE -1312 48 -1344 48
WIRE -1232 48 -1312 48
WIRE -1584 112 -1584 -16
WIRE -752 112 -752 96
WIRE -656 112 -656 96
WIRE -912 304 -944 304
WIRE -800 304 -832 304
WIRE -432 304 -800 304
WIRE -320 304 -368 304
WIRE -176 304 -240 304
WIRE -48 304 -176 304
WIRE -176 336 -176 304
WIRE -592 352 -624 352
WIRE -480 352 -512 352
WIRE -944 432 -944 304
WIRE -944 432 -1008 432
WIRE -912 432 -944 432
WIRE -800 448 -800 304
WIRE -800 448 -848 448
WIRE -736 448 -800 448
WIRE -624 448 -624 352
WIRE -624 448 -656 448
WIRE -592 448 -624 448
WIRE -912 464 -944 464
WIRE -480 464 -480 352
WIRE -480 464 -528 464
WIRE -432 464 -480 464
WIRE -320 464 -368 464
WIRE -176 464 -176 416
WIRE -176 464 -240 464
WIRE -48 464 -176 464
WIRE -592 480 -640 480
WIRE -944 496 -944 464
WIRE -640 528 -640 480
WIRE -1040 608 -1184 608
WIRE -816 608 -960 608
WIRE -560 704 -560 640
WIRE -1184 736 -1184 608
WIRE -1136 736 -1184 736
WIRE -816 736 -816 608
WIRE -816 736 -880 736
WIRE -384 832 -464 832
WIRE -240 848 -320 848
WIRE -704 864 -880 864
WIRE -560 864 -560 784
WIRE -560 864 -624 864
WIRE -384 864 -560 864
WIRE -352 896 -352 880
WIRE -464 912 -464 832
WIRE -400 912 -464 912
WIRE 48 912 -48 912
WIRE 144 912 48 912
WIRE 256 912 208 912
WIRE -560 928 -560 864
WIRE -464 928 -464 912
WIRE -400 944 -400 912
WIRE -240 944 -400 944
WIRE -560 1024 -560 1008
WIRE -464 1024 -464 1008
FLAG -944 496 0
FLAG -640 528 0
FLAG -1136 -48 0
FLAG -752 112 0
FLAG -656 112 0
FLAG -544 -16 0
FLAG -1472 432 V2
FLAG -240 -64 V2
FLAG -1472 352 0
FLAG -160 160 0
FLAG -880 416 V2
FLAG -560 432 V2
FLAG -880 480 V3
FLAG -560 496 V3
FLAG 176 -32 Vmod
FLAG -1088 432 Vmod
FLAG -752 -272 V2
FLAG -544 -96 V2
FLAG -48 304 Vsense-
FLAG -48 464 Vsense+
FLAG -880 800 V2
FLAG -1136 928 V3
FLAG -560 1024 0
FLAG -464 1024 0
FLAG -352 896 0
FLAG -48 848 V2
FLAG 48 992 0
FLAG -560 640 V2
FLAG -352 816 V2
FLAG -1136 800 Vsense+
FLAG -1136 864 Vsense-
FLAG 256 912 Vout
FLAG -1584 112 0
FLAG -1312 112 0
FLAG -1296 -144 V2
FLAG -1232 48 V3
SYMBOL res -992 416 R90
WINDOW 0 0 56 VBottom 2
WINDOW 3 32 56 VTop 2
SYMATTR InstName R1
SYMATTR Value 470k
SYMBOL Opamps\\OP284 -880 384 R0
SYMATTR InstName U1
SYMBOL Opamps\\OP284 -560 400 R0
SYMATTR InstName U2
SYMBOL res -640 432 R90
WINDOW 0 0 56 VBottom 2
WINDOW 3 32 56 VTop 2
SYMATTR InstName R2
SYMATTR Value 10k
SYMBOL res -816 288 R90
WINDOW 0 0 56 VBottom 2
WINDOW 3 32 56 VTop 2
SYMATTR InstName R3
SYMATTR Value 10Meg
SYMBOL res -496 336 R90
WINDOW 0 7 104 VBottom 2
WINDOW 3 33 60 VTop 2
SYMATTR InstName R5
SYMATTR Value 10k
SYMBOL voltage -1040 -48 R90
WINDOW 123 0 0 Left 0
WINDOW 39 0 0 Left 0
SYMATTR InstName V7
SYMATTR Value SINE(1 1 1)
SYMBOL cap -928 -64 R90
WINDOW 0 0 32 VBottom 2
WINDOW 3 32 32 VTop 2
SYMATTR InstName C1
SYMATTR Value 0.3µ
SYMBOL res -800 -64 R90
WINDOW 0 0 56 VBottom 2
WINDOW 3 32 56 VTop 2
SYMATTR InstName R8
SYMATTR Value 10k
SYMBOL res -736 -112 R180
WINDOW 0 36 76 Left 2
WINDOW 3 36 40 Left 2
SYMATTR InstName R12
SYMATTR Value 47k
SYMBOL res -736 112 R180
WINDOW 0 36 76 Left 2
WINDOW 3 36 40 Left 2
SYMATTR InstName R13
SYMATTR Value 20k
SYMBOL res -640 112 R180
WINDOW 0 36 76 Left 2
WINDOW 3 36 40 Left 2
SYMATTR InstName R16
SYMATTR Value 1.5k
SYMBOL OpAmps\\LT1638 -544 -128 R0
SYMATTR InstName U3
SYMBOL Optos\\4N25A -336 0 R0
SYMATTR InstName U4
SYMBOL voltage -1472 448 R180
WINDOW 123 0 0 Left 0
WINDOW 39 0 0 Left 0
SYMATTR InstName V13
SYMATTR Value 5V
SYMBOL res -176 -16 R0
SYMATTR InstName R17
SYMATTR Value 2k
SYMBOL res -176 64 R0
SYMATTR InstName R18
SYMATTR Value 1.5K
SYMBOL cap 176 -48 R90
WINDOW 0 0 32 VBottom 2
WINDOW 3 32 32 VTop 2
SYMATTR InstName C2
SYMATTR Value 1µ
SYMBOL cap -368 448 R90
WINDOW 0 0 32 VBottom 2
WINDOW 3 32 32 VTop 2
SYMATTR InstName C4
SYMATTR Value 1µ
SYMBOL cap -368 288 R90
WINDOW 0 0 32 VBottom 2
WINDOW 3 32 32 VTop 2
SYMATTR InstName C5
SYMATTR Value 1µ
SYMBOL res -224 288 R90
WINDOW 0 0 56 VBottom 2
WINDOW 3 32 56 VTop 2
SYMATTR InstName R4
SYMATTR Value 1Meg
SYMBOL res -224 448 R90
WINDOW 0 0 56 VBottom 2
WINDOW 3 32 56 VTop 2
SYMATTR InstName R6
SYMATTR Value 1Meg
SYMBOL res -192 320 R0
SYMATTR InstName GRT
SYMATTR Value 33k
SYMBOL OpAmps\\LT1167 -1008 832 R0
SYMATTR InstName U12
SYMBOL res -608 848 R90
WINDOW 0 0 56 VBottom 2
WINDOW 3 32 56 VTop 2
SYMATTR InstName R7
SYMATTR Value 10k
SYMBOL res -544 800 R180
WINDOW 0 36 76 Left 2
WINDOW 3 36 40 Left 2
SYMATTR InstName R14
SYMATTR Value 22k
SYMBOL res -544 1024 R180
WINDOW 0 36 76 Left 2
WINDOW 3 36 40 Left 2
SYMATTR InstName R15
SYMATTR Value 22k
SYMBOL res -448 1024 R180
WINDOW 0 36 76 Left 2
WINDOW 3 36 40 Left 2
SYMATTR InstName R19
SYMATTR Value 1.5k
SYMBOL OpAmps\\LT1638 -352 784 R0
SYMATTR InstName U9
SYMBOL Optos\\4N25A -144 912 R0
SYMATTR InstName U10
SYMBOL res 32 896 R0
SYMATTR InstName R28
SYMATTR Value 1k
SYMBOL Misc\\DIP8 -1456 -48 R0
SYMATTR InstName Charge_Pump_ICL7660
SYMBOL cap -1680 -48 R0
SYMATTR InstName C3
SYMATTR Value 10µF
SYMBOL cap -1328 48 R0
WINDOW 0 42 21 Left 2
WINDOW 3 39 50 Left 2
SYMATTR InstName C6
SYMATTR Value 10µF
SYMBOL res -944 592 R90
WINDOW 0 0 56 VBottom 2
WINDOW 3 32 56 VTop 2
SYMATTR InstName R9
SYMATTR Value 4.3k
SYMBOL cap 208 896 R90
WINDOW 0 0 32 VBottom 2
WINDOW 3 32 32 VTop 2
SYMATTR InstName C7
SYMATTR Value 4.7µF
TEXT -1440 248 Left 2 !.tran 4
