Version 4
SHEET 1 1892 1344
WIRE 1040 128 1008 128
WIRE 1152 128 1120 128
WIRE 1520 128 1152 128
WIRE 1712 128 1600 128
WIRE 1776 128 1712 128
WIRE -48 144 -80 144
WIRE 96 160 16 160
WIRE -192 176 -224 176
WIRE -48 176 -192 176
WIRE 1328 176 1296 176
WIRE 1440 176 1408 176
WIRE 1712 176 1712 128
WIRE -16 208 -16 192
WIRE -80 256 -80 144
WIRE 96 256 -80 256
WIRE 320 256 288 256
WIRE 368 256 320 256
WIRE 848 256 848 224
WIRE 848 256 832 256
WIRE 896 256 848 256
WIRE 1008 256 1008 128
WIRE 1008 256 976 256
WIRE 1040 256 1008 256
WIRE -80 272 -80 256
WIRE 1152 272 1152 128
WIRE 1152 272 1104 272
WIRE 1184 272 1152 272
WIRE 1296 272 1296 176
WIRE 1296 272 1264 272
WIRE 1328 272 1296 272
WIRE 848 288 848 256
WIRE 1040 288 1008 288
WIRE 1440 288 1440 176
WIRE 1440 288 1392 288
WIRE 1520 288 1440 288
WIRE 1712 288 1712 256
WIRE 1712 288 1600 288
WIRE 1776 288 1712 288
WIRE 1328 304 1280 304
WIRE 1008 320 1008 288
WIRE 1280 352 1280 304
WIRE -80 368 -80 352
WIRE 256 448 80 448
WIRE 496 448 336 448
WIRE 80 576 80 448
WIRE 160 576 80 576
WIRE 496 576 496 448
WIRE 496 576 416 576
WIRE 1168 672 1088 672
WIRE 1312 688 1232 688
WIRE 576 704 416 704
WIRE 1168 704 928 704
WIRE 1200 736 1200 720
WIRE 1088 752 1088 672
WIRE 1152 752 1088 752
WIRE 1600 752 1504 752
WIRE 1696 752 1600 752
WIRE 464 768 416 768
WIRE 1088 768 1088 752
WIRE 464 784 464 768
WIRE 1152 784 1152 752
WIRE 1312 784 1152 784
WIRE 1088 864 1088 848
FLAG -304 176 0
FLAG -80 368 0
FLAG -16 208 0
FLAG 288 160 V2
FLAG -16 128 V2
FLAG -192 176 V_in
FLAG -240 720 V2
FLAG -240 640 0
FLAG -96 720 V3
FLAG -96 640 0
FLAG 320 336 0
FLAG 1008 320 0
FLAG 1280 352 0
FLAG 1072 240 V2
FLAG 1360 256 V2
FLAG 1072 304 V3
FLAG 1360 320 V3
FLAG 1776 128 Vsense-
FLAG 1776 288 Vsense+
FLAG 368 256 Vmod
FLAG 592 256 Vmod
FLAG 848 144 V3
FLAG 848 368 0
FLAG 416 640 V2
FLAG 160 768 V3
FLAG 160 640 Vsense+
FLAG 160 704 Vsense-
FLAG 464 784 0
FLAG 576 704 Vsignal
FLAG 1088 864 0
FLAG 1200 736 0
FLAG 1504 688 V2
FLAG 1600 832 0
FLAG 1200 656 V2
FLAG 1696 752 Vout
FLAG 928 704 Vsignal
SYMBOL voltage -208 176 R90
WINDOW 123 0 0 Left 0
WINDOW 39 0 0 Left 0
SYMATTR InstName V_in1
SYMATTR Value SINE(1.5 1 1)
SYMBOL res -64 368 R180
WINDOW 0 36 76 Left 2
WINDOW 3 36 40 Left 2
SYMATTR InstName R1
SYMATTR Value 4.5k
SYMBOL OpAmps\\LT1638 -16 96 R0
SYMATTR InstName U1
SYMBOL Optos\\PC817B 192 208 R0
SYMATTR InstName U2
SYMBOL voltage -240 736 R180
WINDOW 123 0 0 Left 0
WINDOW 39 0 0 Left 0
SYMATTR InstName V1
SYMATTR Value 5V
SYMBOL voltage -96 736 R180
WINDOW 123 0 0 Left 0
WINDOW 39 0 0 Left 0
SYMATTR InstName V2
SYMATTR Value -5
SYMBOL res 304 240 R0
SYMATTR InstName R2
SYMATTR Value 8k
SYMBOL res 992 240 R90
WINDOW 0 0 56 VBottom 2
WINDOW 3 32 56 VTop 2
SYMATTR InstName R3
SYMATTR Value 1Meg
SYMBOL Opamps\\OP284 1072 208 R0
SYMATTR InstName U4
SYMBOL Opamps\\OP284 1360 224 R0
SYMATTR InstName U5
SYMBOL res 1280 256 R90
WINDOW 0 0 56 VBottom 2
WINDOW 3 32 56 VTop 2
SYMATTR InstName R4
SYMATTR Value 1Meg
SYMBOL res 1136 112 R90
WINDOW 0 0 56 VBottom 2
WINDOW 3 40 57 VTop 2
SYMATTR InstName R5
SYMATTR Value 5Meg
SYMBOL res 1424 160 R90
WINDOW 0 7 104 VBottom 2
WINDOW 3 33 60 VTop 2
SYMATTR InstName R6
SYMATTR Value 1Meg
SYMBOL res 848 240 R90
WINDOW 0 0 56 VBottom 2
WINDOW 3 32 56 VTop 2
SYMATTR InstName R7
SYMATTR Value 470k
SYMBOL res 864 384 R180
WINDOW 0 40 47 Left 2
WINDOW 3 -70 47 Left 2
SYMATTR InstName R8
SYMATTR Value 1Meg
SYMBOL res 864 240 R180
WINDOW 0 36 76 Left 2
WINDOW 3 -71 74 Left 2
SYMATTR InstName R9
SYMATTR Value 1Meg
SYMBOL res 1616 112 R90
WINDOW 0 0 56 VBottom 2
WINDOW 3 32 56 VTop 2
SYMATTR InstName R10
SYMATTR Value 1Meg
SYMBOL res 1616 272 R90
WINDOW 0 0 56 VBottom 2
WINDOW 3 32 56 VTop 2
SYMATTR InstName R11
SYMATTR Value 1Meg
SYMBOL res 1728 272 R180
WINDOW 0 36 76 Left 2
WINDOW 3 36 40 Left 2
SYMATTR InstName GRT
SYMBOL res 768 240 R90
WINDOW 0 0 56 VBottom 2
WINDOW 3 33 48 VTop 2
SYMATTR InstName R12
SYMATTR Value 200k
SYMBOL OpAmps\\LT1167 288 672 R0
SYMATTR InstName U3
SYMBOL res 1104 864 R180
WINDOW 0 36 76 Left 2
WINDOW 3 36 40 Left 2
SYMATTR InstName R16
SYMATTR Value 1.5k
SYMBOL OpAmps\\LT1638 1200 624 R0
SYMATTR InstName U6
SYMBOL Optos\\4N25A 1408 752 R0
SYMATTR InstName U7
SYMBOL res 1584 736 R0
SYMATTR InstName R17
SYMATTR Value 1k
SYMBOL res 352 432 R90
WINDOW 0 0 56 VBottom 2
WINDOW 3 32 56 VTop 2
SYMATTR InstName R13
SYMATTR Value 3.3k
SYMBOL res 688 240 R90
WINDOW 0 0 56 VBottom 2
WINDOW 3 32 56 VTop 2
SYMATTR InstName R14
SYMATTR Value 10k
TEXT -280 520 Left 2 !.tran 0 3 0 0.001
